Version 4
SHEET 1 1628 708
WIRE -416 -240 -624 -240
WIRE 16 -240 -352 -240
WIRE 656 -240 16 -240
WIRE 208 -128 208 -160
WIRE -32 -16 -128 -16
WIRE 16 -16 16 -240
WIRE 16 -16 -32 -16
WIRE 208 -16 208 -64
WIRE 208 -16 16 -16
WIRE 656 0 656 -240
WIRE 208 16 208 -16
WIRE -32 80 -32 64
WIRE 48 80 -32 80
WIRE 560 80 368 80
WIRE 656 112 656 80
WIRE 976 112 656 112
WIRE 1248 112 1040 112
WIRE 1472 112 1248 112
WIRE 1568 112 1472 112
WIRE 560 128 560 80
WIRE 656 128 656 112
WIRE 656 128 560 128
WIRE -624 144 -624 -240
WIRE -128 160 -128 -16
WIRE 48 160 -128 160
WIRE 512 160 368 160
WIRE 1248 160 1248 112
WIRE 1472 160 1472 112
WIRE 656 176 656 128
WIRE -32 192 -32 144
WIRE -624 240 -624 224
WIRE 1248 240 1248 224
WIRE 1360 240 1248 240
WIRE 1472 240 1360 240
WIRE -96 256 -160 256
WIRE 48 256 -16 256
WIRE 400 256 368 256
WIRE 512 256 512 160
WIRE 608 256 512 256
WIRE 1360 272 1360 240
WIRE -160 304 -160 256
WIRE 656 352 656 272
WIRE 208 368 208 320
WIRE 288 368 208 368
WIRE 400 368 400 256
WIRE 400 368 368 368
WIRE 416 368 400 368
WIRE 1568 368 1568 112
WIRE 1568 368 496 368
WIRE -160 400 -160 368
WIRE 208 400 208 368
WIRE 128 496 -112 496
WIRE 128 512 128 496
WIRE -112 528 -112 496
WIRE -112 608 -128 608
WIRE -128 656 -128 608
WIRE 48 656 -128 656
WIRE 128 656 128 592
WIRE 128 656 48 656
WIRE 48 688 48 656
FLAG -160 400 0
FLAG 208 -160 0
FLAG 656 352 0
FLAG 1360 272 0
FLAG -32 192 0
FLAG 208 400 0
FLAG 48 688 0
FLAG -624 240 0
SYMBOL nmos 608 176 R0
SYMATTR InstName M1
SYMATTR Value IPD090N03L
SYMBOL ind 640 -16 R0
SYMATTR InstName L1
SYMATTR Value 15µ
SYMATTR SpiceLine Ipk=27 Rser=0.0178 Rpar=5875 Cpar=43.7p mfg="Bourns, Inc." pn="SRP1770TA-150M"
SYMBOL schottky 976 128 R270
WINDOW 0 32 32 VTop 2
WINDOW 3 0 32 VBottom 2
SYMATTR InstName D1
SYMATTR Value RBR30T60A
SYMATTR Description Diode
SYMATTR Type diode
SYMBOL polcap 224 -64 R180
WINDOW 0 24 57 Left 2
WINDOW 3 24 8 Left 2
SYMATTR InstName C1
SYMATTR Value 100µ
SYMATTR Description Capacitor
SYMATTR Type cap
SYMATTR SpiceLine V=2 Irms=3 Rser=0.006 Lser=0 mfg="Rubycon" pn="2SLE100M" type="Al electrolytic"
SYMBOL res 512 352 R90
WINDOW 0 0 56 VBottom 2
WINDOW 3 32 56 VTop 2
SYMATTR InstName R1
SYMATTR Value 9.31K
SYMATTR SpiceLine tol=1 pwr=0.1
SYMBOL res 272 384 R270
WINDOW 0 32 56 VTop 2
WINDOW 3 0 56 VBottom 2
SYMATTR InstName R2
SYMATTR Value 1K
SYMATTR SpiceLine tol=1 pwr=0.1
SYMBOL res 1456 144 R0
SYMATTR InstName R3
SYMATTR Value 50
SYMBOL polcap -48 80 R0
WINDOW 3 24 56 Left 2
SYMATTR Value 1p
SYMATTR InstName C3
SYMATTR Description Capacitor
SYMATTR Type cap
SYMATTR SpiceLine V=16 Irms=0 Rser=11 Lser=0
SYMBOL PowerProducts\\LTC3872 208 160 R0
SYMATTR InstName U1
SYMBOL cap -176 304 R0
SYMATTR InstName C5
SYMATTR Value 0.0022µ
SYMATTR SpiceLine V=100 Irms=142m Rser=1.33509 Lser=0 mfg="KEMET" pn="C0805C222K1RAC" type="X7R"
SYMBOL res 0 240 R90
WINDOW 0 0 56 VBottom 2
WINDOW 3 32 56 VTop 2
SYMATTR InstName R4
SYMATTR Value 14.7K
SYMATTR SpiceLine tol=1 pwr=0.1
SYMBOL res -48 -32 R0
SYMATTR InstName R6
SYMATTR Value 1Meg
SYMATTR SpiceLine tol=1 pwr=0.1
SYMBOL voltage -624 128 R0
WINDOW 123 0 0 Left 0
WINDOW 39 24 124 Left 2
SYMATTR InstName V1
SYMATTR Value 5
SYMATTR SpiceLine Rser=10m
SYMBOL voltage -112 512 R0
WINDOW 123 0 0 Left 0
WINDOW 39 0 0 Left 0
SYMATTR InstName V2
SYMATTR Value 5
SYMBOL res 112 496 R0
SYMATTR InstName R5
SYMATTR Value 100
SYMBOL polcap 1232 160 R0
WINDOW 3 24 56 Left 2
SYMATTR Value 10µ
SYMATTR InstName C6
SYMATTR Description Capacitor
SYMATTR Type cap
SYMATTR SpiceLine V=35 Rser=0.004
SYMBOL diode -416 -224 R270
WINDOW 0 32 32 VTop 2
WINDOW 3 -4 37 VBottom 2
SYMATTR InstName D2
SYMATTR Value MyDiode
TEXT 632 544 Left 2 !.tran 200m
TEXT -152 -344 Left 2 !.model MyDiode D(ron=0,ilimit=2.3)
